Version 4.1
SHEET 1 3252 1124
WIRE 1888 -48 1376 -48
WIRE 2384 -48 1952 -48
WIRE 2528 -48 2384 -48
WIRE 2544 -48 2528 -48
WIRE 2688 -48 2544 -48
WIRE 2688 48 2688 -48
WIRE 240 64 32 64
WIRE 496 64 416 64
WIRE 672 64 496 64
WIRE 800 64 672 64
WIRE 1168 64 1056 64
WIRE 1376 64 1376 -48
WIRE 1376 64 1168 64
WIRE 1488 64 1376 64
WIRE 1712 64 1616 64
WIRE 1888 64 1712 64
WIRE 2032 64 1888 64
WIRE 2224 64 2160 64
WIRE 2384 64 2384 -48
WIRE 2384 64 2224 64
WIRE 2544 64 2544 -48
WIRE 32 80 32 64
WIRE 1712 96 1712 64
WIRE 2224 96 2224 64
WIRE 496 112 496 64
WIRE 672 112 672 64
WIRE 1168 112 1168 64
WIRE 1376 112 1376 64
WIRE 1888 112 1888 64
WIRE 2384 112 2384 64
WIRE 240 176 240 64
WIRE 272 176 240 176
WIRE 416 176 416 64
WIRE 416 176 352 176
WIRE 32 192 32 160
WIRE 32 192 -80 192
WIRE 144 192 32 192
WIRE 272 208 240 208
WIRE 416 208 352 208
WIRE 1552 208 1552 112
WIRE 1712 208 1712 176
WIRE 1712 208 1552 208
WIRE 1888 208 1888 176
WIRE 1888 208 1712 208
WIRE 2096 208 2096 112
WIRE 2224 208 2224 176
WIRE 2224 208 2096 208
WIRE 2384 208 2384 176
WIRE 2384 208 2224 208
WIRE 2432 208 2384 208
WIRE -80 224 -80 192
WIRE 1552 224 1552 208
WIRE 2224 224 2224 208
WIRE 32 240 32 192
WIRE 2432 240 2432 208
WIRE 144 272 144 192
WIRE 496 272 496 176
WIRE 496 272 144 272
WIRE 672 272 672 176
WIRE 672 272 496 272
WIRE 768 272 672 272
WIRE 928 272 928 160
WIRE 928 272 768 272
WIRE 1168 272 1168 176
WIRE 1168 272 928 272
WIRE 1376 272 1376 176
WIRE 1376 272 1168 272
WIRE 1456 272 1376 272
WIRE 1712 272 1712 208
WIRE 2432 320 2432 304
WIRE 2544 320 2544 128
WIRE 2544 320 2432 320
WIRE 2688 320 2688 128
WIRE 2688 320 2544 320
WIRE 496 336 496 272
WIRE 672 336 672 272
WIRE 1168 336 1168 272
WIRE 1376 336 1376 272
WIRE 2224 352 2224 304
WIRE 2432 352 2432 320
WIRE 1456 368 1456 272
WIRE 1552 368 1552 304
WIRE 1552 368 1456 368
WIRE 1712 368 1712 336
WIRE 1712 368 1552 368
WIRE 2224 464 2224 432
WIRE 32 480 32 320
WIRE 240 480 240 208
WIRE 240 480 32 480
WIRE 416 480 416 208
WIRE 496 480 496 400
WIRE 496 480 416 480
WIRE 672 480 672 400
WIRE 672 480 496 480
WIRE 800 480 672 480
WIRE 1168 480 1168 400
WIRE 1168 480 1056 480
WIRE 1376 480 1376 400
WIRE 1376 480 1168 480
WIRE 2144 480 1376 480
WIRE 2224 608 2224 544
WIRE 2256 608 2224 608
WIRE 2368 608 2256 608
WIRE 768 640 768 272
WIRE 928 640 928 576
WIRE 928 640 768 640
WIRE 2144 672 2144 480
WIRE 2208 672 2144 672
WIRE 2144 720 2144 672
WIRE 2256 720 2256 704
WIRE 2256 720 2144 720
WIRE 2368 720 2368 608
WIRE 2368 848 2368 784
WIRE 2368 976 2368 912
WIRE 2368 1104 2368 1040
FLAG -80 224 0
FLAG 2528 -48 OUT
FLAG 2368 1104 0
FLAG 2432 352 0
SYMBOL voltage 32 64 R0
WINDOW 123 0 0 Left 0
WINDOW 39 0 0 Left 0
SYMATTR InstName V1
SYMATTR Value SINE(0 24 50)
SYMBOL voltage 32 224 R0
WINDOW 123 0 0 Left 0
WINDOW 39 0 0 Left 0
SYMATTR InstName V2
SYMATTR Value SINE(0 24 50)
SYMBOL lib\\sym\\ZZZ\\VolReg\\7818 928 64 R0
SYMATTR InstName U2
SYMBOL lib\\sym\\ZZZ\\VolReg\\7905 928 480 R0
WINDOW 3 -42 -41 Left 2
SYMATTR InstName U3
SYMBOL cap 480 112 R0
SYMATTR Value 2200µ
SYMATTR InstName C1
SYMATTR SpiceLine V=50 Irms=1.53 Rser=0.037 Lser=0 mfg="Nichicon" pn="UPR1H222MRH" type="Al electrolytic"
SYMBOL cap 656 112 R0
SYMATTR InstName C2
SYMATTR Value 1µ
SYMATTR SpiceLine V=50 Irms=0 Rser=0.0444 Lser=799p mfg="Würth Elektronik" pn="885012209047 WCAP-CSGP 1210" type="X7R"
SYMBOL cap 1152 112 R0
SYMATTR Value 10µ
SYMATTR InstName C3
SYMATTR SpiceLine V=25 Irms=23m Rser=1.95 Lser=70f mfg="Würth Elektronik" pn="865230440002 WCAP-AS5H 4.3x4.3" type="Al electrolytic"
SYMBOL cap 1360 112 R0
SYMATTR InstName C4
SYMATTR Value 0.1µ
SYMATTR SpiceLine V=25 Irms=0 Rser=0.0287 Lser=150p mfg="Würth Elektronik" pn="885012104005 WCAP-CSGP 0201" type="X5R"
SYMBOL cap 480 336 R0
SYMATTR Value 2200µ
SYMATTR InstName C5
SYMATTR SpiceLine V=50 Irms=1.53 Rser=0.037 Lser=0 mfg="Nichicon" pn="UPR1H222MRH" type="Al electrolytic"
SYMBOL cap 656 336 R0
SYMATTR InstName C6
SYMATTR Value 1µ
SYMATTR SpiceLine V=50 Irms=0 Rser=0.0444 Lser=799p mfg="Würth Elektronik" pn="885012209047 WCAP-CSGP 1210" type="X7R"
SYMBOL cap 1152 336 R0
SYMATTR Value 10µ
SYMATTR InstName C7
SYMATTR SpiceLine V=25 Irms=23m Rser=1.95 Lser=70f mfg="Würth Elektronik" pn="865230440002 WCAP-AS5H 4.3x4.3" type="Al electrolytic"
SYMBOL cap 1360 336 R0
SYMATTR InstName C8
SYMATTR Value 0.1µ
SYMATTR SpiceLine V=25 Irms=0 Rser=0.0287 Lser=150p mfg="Würth Elektronik" pn="885012104005 WCAP-CSGP 0201" type="X5R"
SYMBOL gbu6d 304 192 R0
WINDOW 39 296 -251 Center 2
SYMATTR InstName U1
SYMBOL LM317 2096 64 R0
SYMATTR InstName U4
SYMBOL res 2208 80 R0
SYMATTR InstName R1
SYMATTR Value 560
SYMBOL res 2208 208 R0
SYMATTR InstName R2
SYMATTR Value 1k
SYMBOL diode 2400 176 R180
WINDOW 0 24 64 Left 2
WINDOW 3 24 0 Left 2
SYMATTR InstName D1
SYMATTR Value 1N4001
SYMBOL njf 2208 608 R0
SYMATTR InstName J1
SYMATTR Value J309
SYMBOL diode 1952 -64 R90
WINDOW 0 0 32 VBottom 2
WINDOW 3 32 32 VTop 2
SYMATTR InstName D6
SYMATTR Value 1N4002
SYMBOL diode 2384 1040 R180
WINDOW 0 24 64 Left 2
WINDOW 3 24 0 Left 2
SYMATTR InstName D8
SYMATTR Value 1N4001
SYMBOL diode 2384 784 R180
WINDOW 0 24 64 Left 2
WINDOW 3 24 0 Left 2
SYMATTR InstName D9
SYMATTR Value 1N4001
SYMBOL diode 2384 912 R180
WINDOW 0 24 64 Left 2
WINDOW 3 24 0 Left 2
SYMATTR InstName D10
SYMATTR Value 1N4001
SYMBOL cap 2416 240 R0
SYMATTR Value 10µ
SYMATTR InstName C11
SYMATTR SpiceLine V=25 Irms=23m Rser=1.95 Lser=70f mfg="Würth Elektronik" pn="865230440002 WCAP-AS5H 4.3x4.3" type="Al electrolytic"
SYMBOL cap 2528 64 R0
SYMATTR InstName C12
SYMATTR Value 1µ
SYMATTR SpiceLine V=25 Irms=0 Rser=0.014 Lser=1000p mfg="Würth Elektronik" pn="885012210012 WCAP-CSGP 1812" type="X7R"
SYMBOL res 2672 32 R0
SYMATTR InstName R8
SYMATTR Value 300
SYMBOL res 2208 336 R0
SYMATTR InstName R9
SYMATTR Value 10
SYMBOL res 2208 448 R0
SYMATTR InstName R10
SYMATTR Value 1
SYMBOL LM317 1552 64 R0
SYMATTR InstName U5
SYMBOL res 1696 80 R0
SYMATTR InstName R3
SYMATTR Value 560
SYMBOL res 1536 208 R0
SYMATTR InstName R4
SYMATTR Value 10k
SYMBOL diode 1904 176 R180
WINDOW 0 24 64 Left 2
WINDOW 3 24 0 Left 2
SYMATTR InstName D2
SYMATTR Value 1N4001
SYMBOL cap 1696 272 R0
SYMATTR Value 10µ
SYMATTR InstName C9
SYMATTR SpiceLine V=25 Irms=23m Rser=1.95 Lser=70f mfg="Würth Elektronik" pn="865230440002 WCAP-AS5H 4.3x4.3" type="Al electrolytic"
TEXT 920 -16 Left 2 ;LM7818
TEXT 16 24 Left 2 !.tran 0 1 0 0.1m
TEXT 536 232 Left 2 ;50V rating
TEXT 1208 232 Left 2 ;25V rating
TEXT 288 0 Left 2 ;POWER supply circuit
TEXT 608 680 Left 2 !.MODEL 1N4001 D  ( IS=76.9p RS=42.0m BV=50.0 IBV=5.00u\n+ CJO=39.8p  M=0.333 N=1.45 TT=4.32u )
TEXT 608 752 Left 2 !.MODEL 1N4002 D  ( IS=76.9p RS=42.0m BV=100 IBV=5.00u\n+ CJO=39.8p  M=0.333 N=1.45 TT=4.32u )
TEXT 2312 416 Left 2 ;.step param resistor list 10 50 100 500 1k 2k 5k 10k
TEXT 2064 16 Left 2 ;LM317
TEXT 2040 384 Left 2 ;Fine-tuning 1k
TEXT 2328 504 Left 2 ;Ultra-fine 100R
TEXT 2184 264 Right 2 ;Coarse tuning 10k
